
  EPA STORM WATER MANAGEMENT MODEL - VERSION 5.1 (Build 5.1.006)
  --------------------------------------------------------------

  Example 1 
  
  *********************************************************
  NOTE: The summary statistics displayed in this report are
  based on results found at every computational time step,  
  not just on results from each reporting time step.
  *********************************************************
  
  ****************
  Analysis Options
  ****************
  Flow Units ............... CFS
  Process Models:
    Rainfall/Runoff ........ YES
    RDII ................... NO
    Snowmelt ............... NO
    Groundwater ............ NO
    Flow Routing ........... YES
    Ponding Allowed ........ NO
    Water Quality .......... YES
  Infiltration Method ...... HORTON
  Flow Routing Method ...... KINWAVE
  Starting Date ............ JAN-01-1998 00:00:00
  Ending Date .............. JAN-02-1998 12:00:00
  Antecedent Dry Days ...... 5.0
  Report Time Step ......... 00:01:00
  Wet Time Step ............ 00:15:00
  Dry Time Step ............ 01:00:00
  Routing Time Step ........ 60.00 sec
  
  
  **************************        Volume         Depth
  Runoff Quantity Continuity     acre-feet        inches
  **************************     ---------       -------
  Total Precipitation ......        15.679         2.650
  Evaporation Loss .........         0.000         0.000
  Infiltration Loss ........         9.346         1.580
  Surface Runoff ...........         6.295         1.064
  Final Surface Storage ....         0.080         0.014
  Continuity Error (%) .....        -0.272
  
  
  **************************           TSS          Lead
  Runoff Quality Continuity            lbs           lbs
  **************************    ----------    ----------
  Initial Buildup ..........      3433.036         0.000
  Surface Buildup ..........       315.716         0.086
  Wet Deposition ...........         0.000         0.000
  Sweeping Removal .........         0.000         0.000
  Infiltration Loss ........         0.000         0.000
  BMP Removal ..............         0.000         0.000
  Surface Runoff ...........       431.367         0.086
  Remaining Buildup ........      3317.385         0.000
  Continuity Error (%) .....         0.000         0.000
  
  
  **************************        Volume        Volume
  Flow Routing Continuity        acre-feet      10^6 gal
  **************************     ---------     ---------
  Dry Weather Inflow .......         0.000         0.000
  Wet Weather Inflow .......         6.295         2.051
  Groundwater Inflow .......         0.000         0.000
  RDII Inflow ..............         0.000         0.000
  External Inflow ..........         0.000         0.000
  External Outflow .........         5.873         1.914
  Internal Outflow .........         0.415         0.135
  Evaporation Loss .........         0.000         0.000
  Seepage Loss .............         0.000         0.000
  Initial Stored Volume ....         0.000         0.000
  Final Stored Volume ......         0.000         0.000
  Continuity Error (%) .....         0.111
  
  
  **************************           TSS          Lead
  Quality Routing Continuity           lbs           lbs
  **************************    ----------    ----------
  Dry Weather Inflow .......         0.000         0.000
  Wet Weather Inflow .......       431.367         0.086
  Groundwater Inflow .......         0.000         0.000
  RDII Inflow ..............         0.000         0.000
  External Inflow ..........         0.000         0.000
  Internal Flooding ........        22.237         0.004
  External Outflow .........       409.730         0.082
  Mass Reacted .............         0.000         0.000
  Initial Stored Mass ......         0.000         0.000
  Final Stored Mass ........         0.000         0.000
  Continuity Error (%) .....        -0.139        -0.139
  
  
  ********************************
  Highest Flow Instability Indexes
  ********************************
  Link 15 (1)
  
  
  *************************
  Routing Time Step Summary
  *************************
  Minimum Time Step           :    60.00 sec
  Average Time Step           :    60.00 sec
  Maximum Time Step           :    60.00 sec
  Percent in Steady State     :     0.00
  Average Iterations per Step :     1.49
  Percent Not Converging      :     0.00
  
  
  ***************************
  Subcatchment Runoff Summary
  ***************************
  
  --------------------------------------------------------------------------------------------------------
                            Total      Total      Total      Total      Total       Total     Peak  Runoff
                           Precip      Runon       Evap      Infil     Runoff      Runoff   Runoff   Coeff
  Subcatchment                 in         in         in         in         in    10^6 gal      CFS
  --------------------------------------------------------------------------------------------------------
  1                          2.65       0.00       0.00       1.16       1.48        0.40     4.66   0.559
  2                          2.65       0.00       0.00       1.21       1.43        0.39     4.52   0.539
  3                          2.65       0.00       0.00       1.16       1.49        0.20     2.45   0.561
  4                          2.65       0.00       0.00       1.16       1.49        0.20     2.45   0.561
  5                          2.65       0.00       0.00       1.24       1.40        0.57     6.56   0.528
  6                          2.65       0.00       0.00       2.27       0.38        0.12     1.50   0.143
  7                          2.65       0.00       0.00       2.14       0.51        0.06     0.79   0.194
  8                          2.65       0.00       0.00       2.25       0.40        0.11     1.33   0.150
  
  
  ****************************
  Subcatchment Washoff Summary
  ****************************
  
  ------------------------------------------------
                                 TSS          Lead
  Subcatchment                   lbs           lbs
  ------------------------------------------------
  1                           50.074         0.010
  2                           90.586         0.018
  3                           25.144         0.005
  4                           46.097         0.009
  5                           71.172         0.014
  6                           65.843         0.013
  7                           26.025         0.005
  8                           56.427         0.011
  ------------------------------------------------
  System                     431.367         0.086
  
  
  ******************
  Node Depth Summary
  ******************
  
  ---------------------------------------------------------------------
                                 Average  Maximum  Maximum  Time of Max
                                   Depth    Depth      HGL   Occurrence
  Node                 Type         Feet     Feet     Feet  days hr:min
  ---------------------------------------------------------------------
  9                    JUNCTION     0.09     0.57  1000.57     0  04:00
  10                   JUNCTION     0.32     3.00   998.00     0  02:16
  13                   JUNCTION     0.06     0.41   995.41     0  04:00
  14                   JUNCTION     0.06     0.46   990.46     0  04:00
  15                   JUNCTION     0.15     1.15   988.15     0  04:00
  16                   JUNCTION     0.17     1.14   986.14     0  04:00
  17                   JUNCTION     0.18     1.14   981.14     0  04:01
  19                   JUNCTION     0.03     0.22  1010.22     0  04:00
  20                   JUNCTION     0.03     0.22  1005.22     0  04:01
  21                   JUNCTION     1.16     2.00   992.00     0  02:54
  22                   JUNCTION     1.11     1.58   988.58     0  04:01
  23                   JUNCTION     0.05     0.35   990.35     0  04:00
  24                   JUNCTION     0.18     1.14   985.14     0  04:00
  18                   OUTFALL      0.17     1.07   976.07     0  04:01
  
  
  *******************
  Node Inflow Summary
  *******************
  
  -------------------------------------------------------------------------------------------------
                                  Maximum  Maximum                  Lateral       Total        Flow
                                  Lateral    Total  Time of Max      Inflow      Inflow     Balance
                                   Inflow   Inflow   Occurrence      Volume      Volume       Error
  Node                 Type           CFS      CFS  days hr:min    10^6 gal    10^6 gal     Percent
  -------------------------------------------------------------------------------------------------
  9                    JUNCTION      4.66     4.66     0  04:00       0.402       0.402       0.000
  10                   JUNCTION      4.52     9.17     0  04:00       0.388        0.79      -0.000
  13                   JUNCTION      2.45     2.45     0  04:00       0.202       0.202       0.000
  14                   JUNCTION      0.00     2.44     0  04:00           0       0.202       0.000
  15                   JUNCTION      6.56     9.00     0  04:00        0.57       0.771       0.000
  16                   JUNCTION      0.00    16.82     0  04:00           0        1.69       0.000
  17                   JUNCTION      0.00    18.30     0  04:01           0        1.81       0.000
  19                   JUNCTION      0.79     0.79     0  04:00      0.0558      0.0558       0.000
  20                   JUNCTION      0.00     0.78     0  04:01           0      0.0558       0.000
  21                   JUNCTION      0.00     5.42     0  04:01           0       0.714       0.000
  22                   JUNCTION      2.45     7.86     0  04:00       0.202       0.915       0.000
  23                   JUNCTION      1.50     1.50     0  04:00       0.124       0.124       0.000
  24                   JUNCTION      0.00    18.30     0  04:00           0        1.81       0.000
  18                   OUTFALL       1.33    19.57     0  04:01       0.108        1.91       0.000
  
  
  **********************
  Node Surcharge Summary
  **********************
  
  Surcharging occurs when water rises above the top of the highest conduit.
  ---------------------------------------------------------------------
                                               Max. Height   Min. Depth
                                   Hours       Above Crown    Below Rim
  Node                 Type      Surcharged           Feet         Feet
  ---------------------------------------------------------------------
  10                   JUNCTION        2.82          1.500        0.000
  
  
  *********************
  Node Flooding Summary
  *********************
  
  Flooding refers to all water that overflows a node, whether it ponds or not.
  --------------------------------------------------------------------------
                                                             Total   Maximum
                                 Maximum   Time of Max       Flood    Ponded
                        Hours       Rate    Occurrence      Volume    Volume
  Node                 Flooded       CFS   days hr:min    10^6 gal  1000 ft3
  --------------------------------------------------------------------------
  10                      2.82      4.53      0  04:00       0.135     0.000
  
  
  ***********************
  Outfall Loading Summary
  ***********************
  
  ---------------------------------------------------------------------------------------
                         Flow       Avg       Max       Total         Total         Total
                         Freq      Flow      Flow      Volume           TSS          Lead
  Outfall Node           Pcnt       CFS       CFS    10^6 gal           lbs           lbs
  ---------------------------------------------------------------------------------------
  18                    72.93      2.71     19.57       1.914       409.730         0.082
  ---------------------------------------------------------------------------------------
  System                72.93      2.71     19.57       1.914       409.730         0.082
  
  
  ********************
  Link Flow Summary
  ********************
  
  -----------------------------------------------------------------------------
                                 Maximum  Time of Max   Maximum    Max/    Max/
                                  |Flow|   Occurrence   |Veloc|    Full    Full
  Link                 Type          CFS  days hr:min    ft/sec    Flow   Depth
  -----------------------------------------------------------------------------
  1                    CONDUIT      4.65     0  04:00      7.60    0.30    0.38
  4                    CONDUIT      0.78     0  04:01      6.11    0.11    0.22
  5                    CONDUIT      0.78     0  04:01      8.99    0.06    0.17
  6                    CONDUIT      4.93     0  02:52      7.01    1.06    1.00
  7                    CONDUIT      5.41     0  04:01      7.19    0.18    0.29
  8                    CONDUIT      7.85     0  04:00      6.84    0.33    0.39
  10                   CONDUIT     18.27     0  04:01     10.75    0.56    0.53
  11                   CONDUIT      2.44     0  04:00      6.36    0.16    0.27
  12                   CONDUIT      2.44     0  04:01      5.30    0.21    0.31
  13                   CONDUIT      8.97     0  04:00      6.24    0.93    0.76
  14                   CONDUIT      1.49     0  04:01      6.12    0.26    0.35
  15                   CONDUIT     16.82     0  04:00      9.67    0.57    0.54
  16                   CONDUIT     18.30     0  04:01      9.87    0.62    0.57
  
  
  *************************
  Conduit Surcharge Summary
  *************************
  
  ----------------------------------------------------------------------------
                                                           Hours        Hours 
                         --------- Hours Full --------   Above Full   Capacity
  Conduit                Both Ends  Upstream  Dnstream   Normal Flow   Limited
  ----------------------------------------------------------------------------
  6                           2.15      2.80      2.17      2.80         2.80
  
  
  ***************************
  Link Pollutant Load Summary
  ***************************
  
  ------------------------------------------------
                                 TSS          Lead
  Link                           lbs           lbs
  ------------------------------------------------
  1                           50.057         0.010
  4                           25.983         0.005
  5                           25.969         0.005
  6                          119.071         0.024
  7                          145.044         0.029
  8                          191.120         0.038
  10                         353.304         0.071
  11                          25.132         0.005
  12                          25.112         0.005
  13                          96.257         0.019
  14                          65.729         0.013
  15                         287.476         0.057
  16                         353.232         0.071
  

  Analysis begun on:  Mon Feb 15 21:17:29 2021
  Analysis ended on:  Mon Feb 15 21:17:29 2021
  Total elapsed time: < 1 sec